54
	Energy:     150.7241891
C         -3.72784        1.35583       -0.26430
C         -3.01011        0.17649       -0.14745
C         -1.61895        0.35890        0.12613
C         -1.23698        1.68509        0.23781
S         -2.64315        2.67395       -0.01218
O         -3.57798       -1.05026       -0.29742
C         -2.74385       -2.08136        0.24021
C         -1.30284       -1.90249       -0.22266
H         -3.13878       -3.04085       -0.10767
H         -2.82045       -2.05567        1.33438
O         -0.74963       -0.67662        0.27245
H         -1.23703       -1.89339       -1.31762
H         -0.68226       -2.72212        0.15174
C          0.09894        2.25763        0.46920
C         -5.16590        1.54607       -0.49948
S          1.49811        1.26536        0.74137
C          2.61748        2.57536        0.80232
C          0.50093        3.58251        0.49034
C          1.91439        3.75441        0.60219
O         -0.37169        4.62001        0.40160
O          2.51999        4.96810        0.52869
C          0.28319        5.84013        0.04173
C          1.60351        6.03479        0.78060
H          2.08067        6.96151        0.44451
H          1.45106        6.10715        1.86378
H         -0.39666        6.66303        0.28601
H          0.43467        5.83573       -1.04366
C         -5.91911        2.69278       -0.73405
S         -6.24876        0.17847       -0.46077
C         -7.64283        1.12122       -0.69020
C         -7.32164        2.44541       -0.81507
H         -8.62219        0.66869       -0.72744
O         -8.28114        3.38354       -0.97822
O         -5.39108        3.93778       -0.87275
C         -7.71219        4.62431       -1.41257
C         -6.39621        4.95105       -0.69823
H         -5.99281        5.88825       -1.09586
H         -6.56179        5.08485        0.37763
H         -8.44907        5.40869       -1.20612
H         -7.57326        4.57162       -2.49851
C          4.04554        2.38371        1.09615
C          4.80469        1.22968        1.28932
S          5.08105        3.76642        1.33831
C          6.13571        1.49746        1.72383
C          6.42921        2.82950        1.77190
H          7.36686        3.29577        2.04093
O          4.33574       -0.03024        1.10489
O          7.05251        0.57051        2.08377
C          5.15705       -1.00368        1.76894
C          6.66423       -0.73942        1.66415
H          4.93995       -1.97772        1.31657
H          4.84588       -1.04987        2.81892
H          7.02280       -0.88606        0.63927
H          7.19867       -1.45152        2.30430
