! RI BP86 def2-SVP def2/J D3BJ TIGHTSCF  Opt Grid3 FinalGrid5
%maxcore 3000
%geom
optimizehydrogens true
end


*xyz 0 1
C	-0.656718	-0.032756	0.000275
C	-0.737296	1.362986	0.000276
C	0.513583	2.037264	0.000094
H	-1.699148	1.895942	0.000412
C	1.598672	1.142091	-0.000013
S	1.033887	-0.523236	0.000070
C	0.641756	3.535257	0.000052
H	-0.355910	4.014399	0.000172
H	1.195047	3.900832	-0.891119
H	1.195277	3.900863	0.891066
H	-1.469005	-0.744507	0.000416
H	2.663695	1.321327	-0.000130
*