! RI BP86 def2-SVP def2/J D3BJ TIGHTSCF  Opt Grid3 FinalGrid5
%maxcore 3000
%geom
optimizehydrogens true
end


*xyz 0 1
C	-2.537837	-0.654302	-0.000086
C	-1.505505	-1.595828	0.000162
C	-0.190557	-1.056149	0.000329
H	-1.698751	-2.678409	0.000002
C	-0.197359	0.350068	0.000267
S	-1.848743	0.962091	0.000535
C	1.048852	-1.907436	0.000362
H	0.785565	-2.982609	0.000328
H	1.682660	-1.712841	0.891572
H	1.682733	-1.712800	-0.890788
H	-3.598932	-0.855492	-0.000443
H	0.614928	1.061819	0.000126
*