40
	Energy:      12.0822526
C          5.74001        0.53294       -0.13291 ***
C          5.42099        1.82438       -0.45760
C          3.99230        1.90914       -0.47700
H          6.13441        2.61122       -0.65672
O          4.61628       -0.19044        0.05074
C          3.53266        0.63097       -0.15470
C          3.16553        3.12870       -0.78133
C          4.00494        4.36705       -1.12608
H          2.53377        3.35234        0.08733
H          2.49714        2.90319       -1.62162
C          3.15421        5.60065       -1.42121
H          4.63468        4.15144       -1.99905
H          4.68172        4.59578       -0.29264
C          4.03587        6.79572       -1.75936
H          2.53373        5.84477       -0.55164
H          2.47974        5.40012       -2.26114
H          4.70910        7.03420       -0.92911
H          3.42307        7.67879       -1.96378
H          4.64718        6.59377       -2.64528
H          6.67019        0.00000       -0.00000 **
C          2.19890        0.11470       -0.02433
O          1.05012        0.83789       -0.20663
C          0.00000        0.00000        0.00000 *
C          1.84768       -1.18485        0.30108
C          0.42881       -1.27299        0.31835
H         -0.97765        0.44785       -0.11550 ****
H          2.55806       -1.97623        0.49993
C         -0.42858       -2.46657        0.60840
C          0.35957       -3.73160        0.96937
H         -1.05295       -2.66921       -0.27096
H         -1.10810       -2.21812        1.43347
C         -0.55715       -4.92483        1.23812
H          0.97572       -3.54209        1.85773
H          1.04694       -3.98568        0.15228
C          0.24638       -6.16633        1.59779
H          0.83862       -6.00160        2.50383
H          0.92994       -6.44040        0.78753
H         -0.42214       -7.01371        1.77877
H         -1.16532       -5.13509        0.35090
H         -1.24525       -4.69112        2.05844
