16
	Energy:      24.4365537
C          0.00000        0.00000        0.00000 *
C          1.21705        0.89878        0.09126
H         -0.92036        0.57753        0.12540 ****
H          0.03611       -0.77978        0.76773
H         -0.03200       -0.50759       -0.96961
O          2.38817        0.09400       -0.03400
H          1.22617        1.41250        1.05882
H          1.19073        1.64401       -0.71126
C          3.57261        0.88907        0.02681
C          4.80038       -0.01272       -0.03578
H          3.58974        1.47010        0.95662
H          3.58915        1.59746       -0.81002
O          5.97702        0.79277        0.03987 ***
H          4.79587       -0.58624       -0.97026
H          4.77930       -0.72707        0.79595
H          7.15587        0.00000       -0.00000 **
