169
	Energy:    1201.7094010
H          2.77145        2.46991        2.75121
C          1.29455        0.67033        0.51482
H          1.89001        1.50221       -4.29593
C          0.00000        0.00000        0.00000 *
H          0.13163       -1.09313       -0.14300
H         -0.25509        0.44770       -0.99109
H         -0.86660        0.15210        0.67454 ****
C          0.70867        2.19924        0.88188
O          1.12584        3.11945        0.18714
O         -0.31707        2.51189        1.87212
C         -1.39168        3.54565        1.98925
C         -1.71463        4.50775        3.35490
H         -2.33213        2.96193        1.88642
H         -1.35257        4.20491        1.09861
O         -3.00558        5.30514        3.44645
H         -0.85979        5.20692        3.45861
H         -1.70456        3.81960        4.22564
C         -3.15987        6.31189        4.57010
C         -4.64845        7.06481        4.92246
H         -2.45854        7.14213        4.35029
H         -2.83422        5.82695        5.51329
O         -4.73129        8.12118        6.00618
H         -5.36298        6.25255        5.17965
H         -5.00194        7.52709        3.97598
C         -6.07309        8.75345        6.31716
C         -6.18536        9.98887        7.47909
H         -6.75994        7.94656        6.65263
H         -6.48640        9.17078        5.37377
O         -7.50451       10.64011        7.83273
H         -5.50229       10.79154        7.13266
H         -5.76822        9.56165        8.41430
C         -7.47295       11.74154        8.86943
O         -8.79709       13.64402       10.38805
C        -10.08160       14.30403       10.81942
C        -10.04124       15.56637       11.93105
H        -10.73838       13.52527       11.26240
H        -10.58922       14.70410        9.91584
O        -11.31701       16.21943       12.37558
H         -9.39547       16.35473       11.49016
H         -9.53449       15.17248       12.83691
C        -11.17861       17.34572       13.35613
C        -12.53830       18.11761       13.93396
H        -10.55709       18.13897       12.88945
H        -10.64389       16.96609       14.25206
O        -12.35178       19.23268       14.90401
H        -13.17520       17.34592       14.41680
H        -13.08827       18.51847       13.05542
C        -13.59839       19.86790       15.41159
C        -13.45121       21.10901       16.48183
H        -14.21397       19.09521       15.91951
H        -14.17677       20.26871       14.55124
O        -14.69924       21.71159       16.99100
H        -12.85751       21.90728       15.98610
H        -12.87428       20.72923       17.35174
C        -14.48986       22.82823       17.93124
C        -15.81187       23.50443       18.57783
H        -13.94819       23.64778       17.41105
H        -13.87548       22.47874       18.78851
O        -15.54462       24.61017       19.49327
H        -16.37058       22.71228       19.12226
H        -16.44785       23.88552       17.74894
C        -16.73949       25.09995       20.17004
C        -16.49477       26.35161       21.11885
H        -17.15985       24.29682       20.81318
H        -17.50475       25.41357       19.42554
O        -17.68151       26.76741       21.82854
H        -16.11729       27.19183       20.49282
H        -15.72018       26.07739       21.86766
C        -17.47607       28.02259       22.50437
C        -18.60803       28.37837       23.51710
H        -17.44355       28.84773       21.75848
H        -16.52904       28.01319       23.09017
O        -18.34548       29.65185       24.09516
H        -18.64392       27.59679       24.31012
H        -19.58189       28.41622       22.97929
C        -19.26669       29.94500       25.13453
H        -20.32435       29.74982       24.84741
H        -19.21608       31.03373       25.36457
H        -19.00010       29.40878       26.07159
C         -8.88169       12.54154        9.36269
H         -9.34307       12.96878        8.44689
H         -9.57109       11.76380        9.75570
H         -6.79546       12.53588        8.49349
H         -7.02899       11.32053        9.79551
C          2.50114        0.17980       -0.64014
H          1.55732        0.17894        1.47616
C          3.87278       -0.84002       -0.56294 ***
H          2.71535        1.03929       -1.30690
H          1.93433       -0.48293       -1.31902
H          5.03776       -0.00000       -0.00000 **
C          4.36378       -1.68017       -1.94189
H          3.63791       -1.62508        0.18815
O          5.44411       -2.64944       -2.15930
C          5.62171       -3.54806       -3.34654
O          3.66417       -1.44910       -2.91608
C          6.94732       -4.57275       -3.72590
H          5.51490       -2.90283       -4.23986
H          4.74914       -4.22811       -3.32071
O          6.85656       -5.48289       -4.95523
H          7.13263       -5.21065       -2.83401
H          7.83817       -3.91266       -3.83622
C          8.02240       -6.36375       -5.41233
C          7.82793       -7.46757       -6.73967
H          8.36274       -6.95755       -4.53549
H          8.86339       -5.68434       -5.67657
O          8.91272       -8.39692       -7.31794
H          7.48152       -6.82552       -7.57375
H          6.98478       -8.11505       -6.42886
C          8.55551       -9.33134       -8.49210
C          9.65200      -10.44777       -9.28317
H          8.17438       -8.67700       -9.30196
H          7.71184       -9.95689       -8.13918
O          9.23589      -11.37835      -10.45101
H         10.05174      -11.09408       -8.47274
H         10.50096       -9.82583       -9.64123
C         10.23006      -12.35474      -11.13065
C          9.79858      -13.44515      -12.44830
H         10.64644      -12.99945      -10.32757
H         11.07361      -11.73963      -11.51136
O         10.74847      -14.44500      -13.16435
H          9.38943      -12.78137      -13.23677
H          8.95596      -14.04462      -12.04877
C         10.24066      -15.35511      -14.31722
C         11.20105      -16.53584      -15.21151
H          9.83181      -14.67747      -15.09428
H          9.39037      -15.93614      -13.90609
O         10.65554      -17.42874      -16.35681
H         11.61943      -17.22224      -14.44546
H         12.05727      -15.96728      -15.63233
C         11.55356      -18.45011      -17.10170
C         11.00633      -19.49168      -18.40150
H         11.96972      -19.13924      -16.33699
H         12.40941      -17.88484      -17.52736
O         11.89706      -20.50802      -19.14046
H         10.59721      -18.81337      -19.17833
H         10.15469      -20.06852      -17.98598
C         11.30671      -21.37144      -20.26924
C         12.20230      -22.54502      -21.16686
H         10.90181      -20.68239      -21.03893
H         10.45346      -21.93867      -19.84360
O         11.55462      -23.36545      -22.27165
H         12.61661      -23.26820      -20.43263
H         13.06344      -22.01439      -21.62596
C         12.39863      -24.38310      -23.01927
C         11.74096      -25.32484      -24.25660
H         12.80370      -25.11306      -22.28658
H         13.25855      -23.85611      -23.48482
O         12.60574      -26.31715      -24.96610
H         11.34225      -24.63197      -25.02761
H         10.88529      -25.88840      -23.82817
C         11.93755      -27.10172      -26.04575
C         12.80611      -28.21761      -26.87440
H         11.55121      -26.40534      -26.82020
H         11.08260      -27.66509      -25.61505
O         12.07136      -28.94204      -27.91654
H         13.20099      -28.96610      -26.15271
H         13.66870      -27.70801      -27.35748
C         12.89417      -29.92446      -28.61750
C         12.17249      -30.75608      -29.76029
H         13.28033      -30.68327      -27.90160
H         13.75208      -29.42203      -29.11666
O         13.09020      -31.67881      -30.35509
H         11.79471      -30.06546      -30.54768
H         11.31902      -31.32581      -29.32859
C         12.48419      -32.44643      -31.39377
H         11.64195      -33.07511      -31.02781
H         13.23214      -33.16839      -31.80224
H         12.17536      -31.82159      -32.26137
H          1.17116       -7.88766       -9.06961
