762
	Energy:     680.6914959
H         -1.58841        0.21514        0.00222
C          5.80095        0.44012        0.00010
C          5.36250        1.74231       -0.08153
C          3.93913        1.91497       -0.07973
H          6.05371        2.57290       -0.13685
S          4.48978       -0.59723        0.06945
C          3.31802        0.66812       -0.01700
C          3.31335        3.29521       -0.14396
C          4.34354        4.44494       -0.20037
H          2.68563        3.43528        0.74291
H          2.67824        3.35221       -1.03456
C          3.71141        5.83112       -0.25127
H          4.98352        4.32351       -1.08510
H          4.99926        4.39745        0.68000
C          4.78478        6.91213       -0.31422
H          3.09106        5.98938        0.63718
H          3.06402        5.91285       -1.13059
H          5.43923        6.87065        0.56328
H          4.32564        7.90456       -0.34792
H          5.40920        6.79672       -1.20685
C          1.92978        0.24901       -0.00723
S          0.58669        1.29990       -0.03169
C          1.49342       -1.06793        0.02318
C          0.08029       -1.23710        0.03509
H          2.17445       -1.90973        0.03997
C         -0.52941        0.00132        0.00465
C         -0.63264       -2.56374        0.07282
C          0.29150       -3.79163        0.13177
H         -1.26694       -2.63660       -0.81874
H         -1.29310       -2.57267        0.94824
C         -0.50202       -5.09645        0.16398
H          0.93082       -3.73716        1.02293
H          0.95924       -3.80115       -0.73990
C          0.41415       -6.30985        0.22788
H         -1.13026       -5.16832       -0.73087
H         -1.16765       -5.10322        1.03424
H          1.07707       -6.35059       -0.64253
H         -0.17873       -7.22979        0.24537
H          1.03405       -6.28917        1.13011
C         13.42023        0.40769        0.01238
C         12.98267        1.70775       -0.09597
C         11.56717        1.85660       -0.08063
H         13.66214        2.54686       -0.16872
S         12.13956       -0.65141        0.09801
C         10.98345        0.59266       -0.00369
C         10.90867        3.22243       -0.14654
C         11.89530        4.40587       -0.20513
H         10.28187        3.34995        0.74331
H         10.26942        3.26276       -1.03549
C         11.19719        5.76225       -0.25052
H         12.53488        4.31113       -1.09270
H         12.55502        4.38241        0.67270
C         12.21394        6.89507       -0.31432
H         10.57137        5.88896        0.63960
H         10.54220        5.81502       -1.12686
H         12.87086        6.88492        0.56199
H         11.70500        7.86314       -0.34541
H         12.84035        6.81201       -1.20889
C          9.62305        0.15434        0.01540
S          8.35170        1.23559        0.04296
C          9.16166       -1.14822        0.02740
C          7.73984       -1.27087        0.04768
H          9.82104       -2.00752        0.02359
C          7.16849        0.00021        0.02638
C          7.02694       -2.60515        0.07463
C          7.91722       -3.85754        0.12878
H          6.39999       -2.67642       -0.82179
H          6.37725       -2.62535        0.95728
C          7.06171       -5.12653        0.16176
H          8.55780       -3.82834        1.01960
H          8.57962       -3.89082       -0.74560
C          7.90699       -6.38845        0.22830
H          6.42942       -5.16728       -0.73268
H          6.39383       -5.09897        1.03046
H          8.56684       -6.46842       -0.64127
H          7.26079       -7.27226        0.24523
H          8.52350       -6.40320        1.13259
C         20.94113        0.42039        0.01474
C         20.50471        1.71917       -0.11251
C         19.09111        1.85609       -0.08786
H         21.17931        2.56150       -0.19389
S         19.67884       -0.64854        0.10315
C         18.52916        0.58414       -0.00094
C         18.41108        3.21155       -0.15166
C         19.37358        4.41233       -0.21208
H         17.78755        3.33120        0.74181
H         17.76525        3.24128       -1.03660
C         18.64417        5.75315       -0.25268
H         20.01176        4.33138       -1.10158
H         20.03569        4.40037        0.66398
C         19.63432        6.90872       -0.31587
H         18.01686        5.86415        0.63873
H         17.98567        5.79331       -1.12724
H         20.29180        6.91191        0.56001
H         19.10356        7.86507       -0.34516
H         20.26133        6.84063       -1.21117
C         17.18811        0.12237        0.03424
S         15.93007        1.20091        0.14167
C         16.74166       -1.18630        0.02370
C         15.32771       -1.30966        0.05880
H         17.40138       -2.04460       -0.00904
C         14.77065       -0.03484        0.05536
C         14.59985       -2.63391        0.07064
C         15.45661       -3.90433        0.12673
H         13.97687       -2.69076       -0.82992
H         13.94633       -2.65003        0.95099
C         14.55370       -5.14159        0.15982
H         16.09507       -3.89244        1.01897
H         16.11756       -3.95687       -0.74713
C         15.34816       -6.43416        0.22883
H         13.91985       -5.15908       -0.73467
H         13.88494       -5.08817        1.02716
H         16.00518       -6.53954       -0.63986
H         14.66730       -7.29157        0.24531
H         15.96119       -6.47120        1.13460
C         28.40408        0.42836        0.00831
C         27.96981        1.72739       -0.12479
C         26.55730        1.85992       -0.09570
H         28.64292        2.57092       -0.20525
S         27.14977       -0.64551        0.08046
C         26.00532        0.58491       -0.00402
C         25.86656        3.21005       -0.15458
C         26.81677        4.41865       -0.21716
H         25.24782        3.32610        0.74272
H         25.21427        3.23484       -1.03522
C         26.07188        5.75135       -0.25448
H         27.45336        4.34425       -1.10807
H         27.48044        4.41220        0.65767
C         27.04933        6.91727       -0.31697
H         25.44416        5.85431        0.63776
H         25.41151        5.78572       -1.12797
H         27.70688        6.92619        0.55877
H         26.50858        7.86800       -0.34519
H         27.67657        6.85614       -1.21255
C         24.67376        0.11498        0.05152
S         23.42892        1.19342        0.23393
C         24.23086       -1.19503        0.02507
C         22.82099       -1.31386        0.06953
H         24.88734       -2.05443       -0.03119
C         22.27838       -0.03328        0.07835
C         22.08208       -2.63267        0.06733
C         22.91962       -3.91392        0.12529
H         21.46386       -2.68015       -0.83723
H         21.42413       -2.64783        0.94473
C         21.99452       -5.13584        0.15822
H         23.55620       -3.91101        1.01868
H         23.58000       -3.97664       -0.74796
C         22.76579       -6.44187        0.22846
H         21.36029       -5.14289       -0.73630
H         21.32565       -5.07090        1.02493
H         23.42140       -6.55862       -0.63974
H         22.07008       -7.28730        0.24473
H         23.37706       -6.48880        1.13489
C         35.83774        0.43200        0.00325
C         35.40385        1.73116       -0.13054
C         33.99161        1.86128       -0.09971
H         36.07604        2.57555       -0.20900
S         34.58717       -0.64461        0.06344
C         33.44470        0.58474       -0.00580
C         33.29537        3.20878       -0.15569
C         34.23985        4.42101       -0.21959
H         32.67929        3.32326        0.74360
H         32.63954        3.23105       -1.03393
C         33.48845        5.75021       -0.25536
H         34.87562        4.34940       -1.11116
H         34.90426        4.41703        0.65466
C         34.46077        6.92028       -0.31746
H         32.86064        5.84982        0.63726
H         32.82729        5.78230       -1.12838
H         35.11832        6.93139        0.55825
H         33.91611        7.86877       -0.34521
H         35.08814        6.86193       -1.21312
C         32.11792        0.11061        0.06256
S         30.88018        1.18714        0.28816
C         31.67637       -1.19994        0.02803
C         30.26839       -1.31632        0.07583
H         32.33098       -2.05975       -0.04067
C         29.73381       -0.03251        0.08876
C         29.52360       -2.63232        0.06571
C         30.35174       -3.91866        0.12541
H         28.90923       -2.67578       -0.84173
H         28.86192       -2.64649        0.94060
C         29.41680       -5.13363        0.15784
H         30.98696       -3.91974        1.01960
H         31.01216       -3.98616       -0.74730
C         30.17819       -6.44526        0.22846
H         28.78256       -5.13607       -0.73680
H         28.74781       -5.06387        1.02419
H         30.83318       -6.56661       -0.63954
H         29.47641       -7.28566        0.24455
H         30.78872       -6.49635        1.13513
C         43.26041        0.43359        0.00095
C         42.82589        1.73281       -0.13177
C         41.41353        1.86158       -0.10063
H         43.49729        2.57787       -0.20914
S         42.01109       -0.64417        0.05732
C         40.86888        0.58432       -0.00591
C         40.71436        3.20775       -0.15582
C         41.65586        4.42184       -0.22039
H         40.09910        3.32152        0.74412
H         40.05718        3.22855       -1.03319
C         40.90131        5.74935       -0.25568
H         42.29130        4.35148       -1.11223
H         42.32052        4.41924        0.65364
C         41.87126        6.92135       -0.31766
H         40.27339        5.84751        0.63706
H         40.23984        5.78029       -1.12852
H         42.52881        6.93349        0.55804
H         41.32484        7.86881       -0.34523
H         42.49869        6.86423       -1.21334
C         39.54389        0.10848        0.06727
S         38.30893        1.18418        0.30917
C         39.10261       -1.20223        0.02972
C         37.69526       -1.31735        0.07819
H         39.75628       -2.06231       -0.04346
C         37.16422       -0.03205        0.09172
C         36.94747       -2.63201        0.06515
C         37.77111       -3.92072        0.12568
H         36.33482       -2.67402       -0.84357
H         36.28407       -2.64524        0.93891
C         36.83175       -5.13255        0.15780
H         38.40565       -3.92362        1.02024
H         38.43150       -3.99037       -0.74680
C         37.58894       -6.44655        0.22850
H         36.19754       -5.13298       -0.73691
H         36.16268       -5.06076        1.02397
H         38.24367       -6.56976       -0.63942
H         36.88466       -7.28485        0.24449
H         38.19918       -6.49938        1.13526
C         50.68416        0.43394       -0.00015
C         50.24765        1.73316       -0.12961
C         48.83475        1.86076       -0.09904
H         50.91788        2.57918       -0.20645
S         49.43440       -0.64412        0.05952
C         48.29099        0.58311       -0.00432
C         48.13316        3.20592       -0.15503
C         49.07184        4.42179       -0.22023
H         47.51760        3.31920        0.74479
H         47.47584        3.22515       -1.03241
C         48.31422        5.74769       -0.25568
H         49.70715        4.35240       -1.11221
H         49.73655        4.42079        0.65370
C         49.28175        6.92164       -0.31775
H         47.68604        5.84470        0.63702
H         47.65260        5.77723       -1.12849
H         49.93932        6.93501        0.55792
H         48.73353        7.86805       -0.34529
H         49.90923        6.86565       -1.21347
C         46.96579        0.10710        0.06830
S         45.73111        1.18345        0.31018
C         46.52363       -1.20341        0.03022
C         45.11598       -1.31744        0.07793
H         47.17670       -2.06391       -0.04283
C         44.58620       -0.03152        0.09075
C         44.36605       -2.63121        0.06490
C         45.18670       -3.92149        0.12573
H         43.75351       -2.67255       -0.84398
H         43.70236       -2.64328        0.93854
C         44.24459       -5.13137        0.15776
H         45.82092       -3.92558        1.02045
H         45.84695       -3.99250       -0.74669
C         44.99924       -6.44682        0.22851
H         43.61036       -5.13061       -0.73695
H         43.57552       -5.05832        1.02385
H         45.65380       -6.57114       -0.63937
H         44.29346       -7.28387        0.24445
H         45.60931       -6.50070        1.13532
C         58.12121        0.43478       -0.00231
C         57.67919        1.73391       -0.11979
C         56.26528        1.85881       -0.09046
H         58.34624        2.58226       -0.19779
S         56.86988       -0.64308        0.08158
C         55.72242        0.58060        0.00425
C         55.55986        3.20218       -0.15132
C         56.49363        4.42115       -0.21837
H         54.94214        3.31547        0.74709
H         54.90414        3.21758       -1.03010
C         55.73025        5.74389       -0.25528
H         57.12878        4.35291       -1.11051
H         57.15838        4.42383        0.65540
C         56.69295        6.92168       -0.31790
H         55.10130        5.83911        0.63712
H         55.06861        5.77013       -1.12823
H         57.35054        6.93783        0.55769
H         56.14102        7.86593       -0.34564
H         57.32046        6.86778       -1.21371
C         54.39507        0.10529        0.06822
S         53.15816        1.18416        0.29230
C         53.95054       -1.20455        0.03008
C         52.54143       -1.31696        0.07460
H         54.60311       -2.06579       -0.03824
C         52.01137       -0.03089        0.08500
C         51.78844       -2.62943        0.06436
C         52.60489       -3.92193        0.12536
H         51.17445       -2.67012       -0.84363
H         51.12576       -2.63907        0.93888
C         51.65885       -5.12899        0.15759
H         53.23884       -3.92772        1.02022
H         53.26483       -3.99493       -0.74705
C         52.40965       -6.44661        0.22850
H         51.02449       -5.12658       -0.73707
H         50.98987       -5.05395        1.02363
H         53.06395       -6.57272       -0.63932
H         51.70160       -7.28174        0.24438
H         53.01946       -6.50208        1.13538
C         65.58939        0.43086        0.11011
C         65.15165        1.72728       -0.05472
C         63.73304        1.85185       -0.06924
H         65.82279        2.57233       -0.13780
S         64.32940       -0.64442        0.16860
C         63.18272        0.57504        0.01920
C         63.02072        3.19120       -0.15839
C         63.94144        4.41812       -0.22123
H         62.38771        3.30667        0.72965
H         62.37754        3.19490       -1.04670
C         63.16061        5.73189       -0.25983
H         64.58062        4.35522       -1.11057
H         64.60158        4.42877        0.65554
C         64.10756        6.92216       -0.31992
H         62.52867        5.81937        0.63156
H         62.49913        5.75060       -1.13325
H         64.76411        6.94521        0.55624
H         63.54360        7.85939       -0.34637
H         64.73593        6.87749       -1.21551
C         61.84848        0.10432        0.04269
S         60.60633        1.19088        0.20250
C         61.39739       -1.20405        0.00933
C         59.98524       -1.31343        0.05359
H         62.04838       -2.06774       -0.04038
C         59.45353       -0.02757        0.05690
C         59.22673       -2.62371        0.06114
C         60.03468       -3.92086        0.12285
H         58.60421       -2.66643       -0.84110
H         58.57155       -2.62513        0.94144
C         59.08003       -5.12178        0.15730
H         60.66877       -3.92943        1.01750
H         60.69324       -3.99923       -0.74992
C         59.82162       -6.44459        0.22870
H         58.44484       -5.11621       -0.73683
H         58.41188       -5.04161        1.02360
H         60.47507       -6.57537       -0.63905
H         59.10795       -7.27497        0.24471
H         60.43086       -6.50394        1.13569
C         72.89810        0.37575       -0.33704
C         72.54952        1.69521       -0.18851
C         71.14487        1.87559       -0.28591
H         73.26530        2.46654        0.07125
S         71.67869       -0.52630       -1.02311
C         70.57489        0.60462       -0.38315
C         70.46223        3.21313       -0.11685
C         71.39585        4.42664       -0.22416
H         69.97080        3.25245        0.86170
H         69.69298        3.30190       -0.89417
C         70.61922        5.74233       -0.23866
H         72.00255        4.35682       -1.13574
H         72.08977        4.43071        0.62634
C         71.56270        6.93323       -0.31095
H         70.00137        5.82384        0.66286
H         69.94355        5.76516       -1.10136
H         72.22570        6.96092        0.55993
H         70.99448        7.86796       -0.33577
H         72.18328        6.88791       -1.21186
C         69.28775        0.11163       -0.06968
S         68.09402        1.15223        0.45785
C         68.86674       -1.20447       -0.00306
C         67.45795       -1.32019        0.14008
H         69.52292       -2.05546       -0.13521
C         66.92195       -0.03568        0.19974
C         66.69271       -2.62296        0.11615
C         67.48927       -3.92523        0.15671
H         66.07740       -2.64215       -0.79235
H         66.02953       -2.63639        0.98999
C         66.51866       -5.11346        0.17060
H         68.12358       -3.95272        1.05051
H         68.14605       -3.99685       -0.71797
C         67.24184       -6.44603        0.22993
H         65.88850       -5.08794       -0.72697
H         65.84609       -5.03482        1.03368
H         67.89468       -6.57654       -0.63822
H         66.51664       -7.26637        0.23675
H         67.84850       -6.52174        1.13732
C         79.64920        0.57761       -0.11265
C         79.32993        1.86932       -0.45042
C         77.91910        1.93964       -0.44955
H         80.04509        2.64872       -0.67601
O         78.57067       -0.14751        0.11094
C         77.52636        0.65265       -0.10130
C         77.08487        3.14464       -0.77263
C         77.93166        4.38214       -1.12058
H         76.44644        3.37451        0.08872
H         76.42747        2.90907       -1.61807
C         77.09648        5.62203       -1.42677
H         78.56592        4.15970       -1.98922
H         78.60716        4.61150       -0.28560
C         77.99455        6.80708       -1.76117
H         76.47220        5.87501       -0.56282
H         76.42834        5.42486       -2.27215
H         78.66302        7.04223       -0.92593
H         77.39303        7.69574       -1.97448
H         78.61263        6.59626       -2.64049
C         76.28331        0.04717        0.02959
O         75.17384        0.72259       -0.21063
C         74.16480       -0.14827       -0.08938
C         76.01128       -1.26330        0.36099
C         74.60925       -1.40627        0.30218
H         76.75180       -2.01392        0.60228
C         73.79591       -2.62717        0.60275
C         74.59442       -3.86218        1.03367
H         73.22374       -2.89520       -0.29235
H         73.07595       -2.37777        1.39275
C         73.65671       -5.04291        1.29602
H         75.17351       -3.64385        1.93976
H         75.31302       -4.13390        0.25004
C         74.41968       -6.30514        1.66155
H         75.01201       -6.15851        2.56996
H         75.09453       -6.60376        0.85308
H         73.72074       -7.12859        1.84026
H         73.05000       -5.24003        0.40435
H         72.96498       -4.79204        2.10867
C         86.37677        0.56694       -0.14234
C         86.07154        1.86702       -0.46719
C         84.66492        1.94125       -0.48938
H         86.79271        2.64940       -0.65918
O         85.29571       -0.16469        0.03360
C         84.26659        0.65018       -0.17015
C         83.82516        3.14672       -0.78774
C         84.65763        4.39127       -1.12982
H         83.19352        3.36337        0.08245
H         83.15918        2.91756       -1.62854
C         83.79993        5.61761       -1.42799
H         85.29265        4.18013       -2.00037
H         85.33083        4.62468       -0.29437
C         84.67591        6.81717       -1.76403
H         83.17538        5.85742       -0.56027
H         83.13002        5.41111       -2.26997
H         85.34365        7.06129       -0.93094
H         84.05840        7.69563       -1.97330
H         85.29321        6.61712       -2.64629
C         83.01495        0.07936       -0.02687
O         81.93651        0.81789       -0.20484
C         80.90407        0.00844        0.00793
C         82.69885       -1.22230        0.29769
C         81.29194       -1.28585        0.32055
H         83.41120       -2.01258        0.49120
C         80.41449       -2.46436        0.61045
C         81.17230       -3.74680        0.96894
H         79.78624       -2.65551       -0.26884
H         79.74304       -2.20773        1.43947
C         80.21569       -4.90858        1.23765
H         81.79374       -3.57457        1.85701
H         81.85121       -4.02003        0.15111
C         80.97339       -6.17632        1.60089
H         81.57034       -6.03041        2.50693
H         81.64650       -6.47702        0.79150
H         80.27373       -6.99777        1.78370
H         79.60168       -5.09833        0.34966
H         79.53379       -4.64959        2.05579
C         93.07878        0.56756       -0.14293
C         92.76954        1.86774       -0.46858
C         91.36316        1.93638       -0.48565
H         93.48750        2.65166       -0.66355
O         92.00290       -0.16720        0.03774
C         90.97304        0.64331       -0.16125
C         90.51583        3.13710       -0.78389
C         91.34009        4.38651       -1.12818
H         89.88384        3.35099        0.08679
H         89.84981        2.90374       -1.62363
C         90.47527        5.60841       -1.42542
H         91.97453        4.17859       -1.99988
H         92.01344        4.62395       -0.29406
C         91.34456        6.81262       -1.76277
H         89.85053        5.84528       -0.55701
H         89.80528        5.39854       -2.26653
H         92.01220        7.06021       -0.93061
H         90.72240        7.68801       -1.97124
H         91.96168        6.61573       -2.64587
C         89.72835        0.06658       -0.01250
O         88.65406        0.80594       -0.19127
C         87.62354       -0.00478        0.00565
C         89.41217       -1.23616        0.31114
C         88.00534       -1.29861        0.32627
H         90.12348       -2.02694        0.50482
C         87.12041       -2.47249        0.61105
C         87.86772       -3.75965        0.97266
H         86.49473       -2.66004       -0.27087
H         86.44622       -2.21170        1.43678
C         86.90057       -4.91356        1.23889
H         88.48752       -3.59170        1.86262
H         88.54691       -4.03813        0.15693
C         87.64636       -6.18773        1.60377
H         88.24235       -6.04694        2.51123
H         88.31865       -6.49406        0.79585
H         86.93920       -7.00312        1.78486
H         86.28690       -5.09802        0.34951
H         86.21880       -4.64897        2.05540
C         99.76889        0.56972       -0.14361
C         99.45757        1.87062       -0.46942
C         98.05135        1.93665       -0.48579
H        100.17404        2.65534       -0.66456
O         98.69480       -0.16619        0.03728
C         97.66461        0.64185       -0.16104
C         97.19930        3.13440       -0.78319
C         98.01845        4.38665       -1.12822
H         96.56711        3.34619        0.08795
H         96.53308        2.89894       -1.62229
C         97.14909        5.60568       -1.42469
H         98.65265        4.18085       -2.00053
H         98.69163        4.62632       -0.29468
C         98.01439        6.81258       -1.76272
H         96.52424        5.84062       -0.55581
H         96.47901        5.39378       -2.26525
H         98.68195        7.06206       -0.93107
H         97.38954        7.68616       -1.97069
H         98.63141        6.61748       -2.64629
C         96.42332        0.06388       -0.01224
O         95.35143        0.80432       -0.19225
C         94.32174       -0.00429        0.00422
C         96.10599       -1.23963        0.31199
C         94.69981       -1.29992        0.32601
H         96.81607       -2.03081        0.50650
C         93.80963       -2.47003        0.61037
C         94.55013       -3.76043        0.97283
H         93.18354       -2.65517       -0.27189
H         93.13566       -2.20651        1.43552
C         93.57693       -4.90973        1.23791
H         95.16940       -3.59522        1.86359
H         95.22884       -4.04198        0.15785
C         94.31650       -6.18725        1.60359
H         94.91205       -6.04904        2.51173
H         94.98837       -6.49639        0.79640
H         93.60561       -6.99959        1.78383
H         92.96329       -5.09142        0.34789
H         92.89533       -4.64211        2.05362
C        106.45642        0.57194       -0.14422
C        106.14259        1.87173       -0.46971
C        104.73586        1.93576       -0.48556
H        106.85708        2.65832       -0.66534
O        105.38324       -0.16596        0.03721
C        104.35168        0.64017       -0.16060
C        103.87997        3.13142       -0.78245
C        104.69483        4.38605       -1.12809
H        103.24752        3.34151        0.08900
H        103.21359        2.89423       -1.62102
C        103.82195        5.60289       -1.42397
H        105.32881        4.18195       -2.00090
H        105.36783        4.62753       -0.29499
C        104.68426        6.81184       -1.76251
H        103.19699        5.83643       -0.55477
H        103.15180        5.38952       -2.26414
H        105.35176        7.06273       -0.93124
H        104.05745        7.68410       -1.97012
H        105.30120        6.61808       -2.64642
C        103.11080        0.06171       -0.01165
O        102.04031        0.80368       -0.19209
C        101.00960       -0.00261        0.00374
C        102.79125       -1.24158        0.31253
C        101.38500       -1.29981        0.32599
H        103.49975       -2.03399        0.50740
C        100.49095       -2.46746        0.60977
C        101.22689       -3.76015        0.97279
H         99.86466       -2.65092       -0.27278
H         99.81698       -2.20220        1.43445
C        100.25019       -4.90687        1.23719
H        101.84581       -3.59672        1.86405
H        101.90527       -4.04363        0.15827
C        100.98636       -6.18630        1.60331
H        101.58169       -6.04951        2.51181
H        101.65800       -6.49698        0.79653
H        100.27349       -6.99701        1.78310
H         99.63658       -5.08707        0.34683
H         99.56869       -4.63764        2.05248
C        113.15344        0.57493       -0.14495
C        112.83470        1.87255       -0.46984
C        111.42648        1.93359       -0.48489
H        113.54595        2.66230       -0.66638
O        112.07984       -0.16577        0.03746
C        111.04512        0.63794       -0.15988
C        110.56553        3.12688       -0.78128
C        111.37436        4.38480       -1.12779
H        109.93272        3.33460        0.09058
H        109.89898        2.88721       -1.61912
C        110.49642        5.59847       -1.42285
H        112.00803        4.18310       -2.00131
H        112.04711        4.62886       -0.29533
C        111.35426        6.81046       -1.76213
H        109.87131        5.82996       -0.55317
H        109.82618        5.38294       -2.26243
H        112.02166        7.06347       -0.93142
H        110.72451        7.68074       -1.96919
H        111.97109        6.61872       -2.64657
C        109.80143        0.05903       -0.01098
O        108.73121        0.80325       -0.19216
C        107.69853       -0.00122        0.00328
C        109.47844       -1.24274        0.31280
C        108.07121       -1.29857        0.32563
H        110.18450       -2.03738        0.50830
C        107.17326       -2.46431        0.60901
C        107.90423       -3.75943        0.97263
H        106.54673       -2.64594       -0.27384
H        106.49928       -2.19712        1.43317
C        106.92382       -4.90342        1.23632
H        108.52276       -3.59788        1.86445
H        108.58225       -4.04497        0.15861
C        107.65638       -6.18487        1.60291
H        108.25147       -6.04960        2.51180
H        108.32779       -6.49718        0.79656
H        106.94145       -6.99387        1.78222
H        106.31023       -5.08208        0.34562
H        106.24243       -4.63252        2.05118
C        119.87668        0.57838       -0.14563
C        119.54777        1.87381       -0.46991
C        118.13694        1.92909       -0.48351
H        120.25337        2.66834       -0.66783
O        118.80047       -0.16580        0.03812
C        117.75854        0.63282       -0.15833
C        117.26726        3.11791       -0.77899
C        118.06478        4.38185       -1.12709
H        116.63381        3.32128        0.09364
H        116.60040        2.87368       -1.61549
C        117.17656        5.58899       -1.42044
H        118.69784        4.18487       -2.00197
H        118.73702        4.63097       -0.29588
C        118.02479        6.80735       -1.76131
H        116.55117        5.81609       -0.54974
H        116.50615        5.36883       -2.25876
H        118.69189        7.06501       -0.93180
H        117.38857        7.67323       -1.96715
H        118.64129        6.62000       -2.64691
C        116.50910        0.05540       -0.01026
O        115.43741        0.80260       -0.19267
C        114.39990        0.00157        0.00227
C        116.17871       -1.24437        0.31304
C        114.76945       -1.29580        0.32473
H        116.88050       -2.04261        0.50965
C        113.86524       -2.45852        0.60759
C        114.58778       -3.75766        0.97223
H        113.23832       -2.63706       -0.27575
H        113.19130       -2.18804        1.43088
C        113.60078       -4.89675        1.23465
H        115.20564       -3.59940        1.86501
H        115.26516       -4.04683        0.15907
C        114.32659       -6.18190        1.60211
H        114.92119       -6.04950        2.51174
H        114.99752       -6.49730        0.79656
H        113.60774       -6.98766        1.78050
H        112.98722       -5.07254        0.34331
H        112.91959       -4.62274        2.04870
C        126.65050        0.58449       -0.14676
C        126.30310        1.87675       -0.47012
C        124.88778        1.92153       -0.48125
H        126.99847        2.67953       -0.67031
O        125.56885       -0.16528        0.03888
C        124.51324        0.62354       -0.15571
C        124.00239        3.10149       -0.77481
C        124.77838        4.37656       -1.12585
H        123.36806        3.29659        0.09940
H        123.33522        2.84863       -1.60887
C        123.86919        5.56986       -1.41560
H        125.41021        4.18898       -2.00342
H        125.44952        4.63576       -0.29713
C        124.69661        6.80145       -1.75975
H        123.24333        5.78745       -0.54267
H        123.19854        5.33969       -2.25119
H        125.36290        7.06915       -0.93281
H        124.04640        7.65756       -1.96291
H        125.31224        6.62358       -2.64787
C        123.25383        0.05031       -0.00940
O        122.17827        0.80167       -0.19352
C        121.13073        0.00769        0.00031
C        122.90969       -1.24693        0.31330
C        121.49708       -1.29079        0.32317
H        123.60389       -2.05120        0.51173
C        120.58183       -2.44742        0.60490
C        121.28809       -3.75416        0.97144
H        119.95430       -2.62015       -0.27944
H        119.90805       -2.17077        1.42657
C        120.28719       -4.88264        1.23114
H        121.90457       -3.60258        1.86614
H        121.96411       -4.05069        0.16003
C        120.99786       -6.17578        1.60047
H        121.59125       -6.04980        2.51178
H        121.66758       -6.49816        0.79670
H        120.27010       -6.97403        1.77677
H        119.67380       -5.05203        0.33835
H        119.60649       -4.60170        2.04334
C        133.51408        0.57490       -0.14351
C        133.14269        1.86421       -0.46626
C        131.72005        1.89894       -0.47574
H        133.82475        2.67766       -0.66859
O        132.41865       -0.17849        0.04232
C        131.34454        0.59987       -0.15035
C        130.81226        3.06603       -0.76612
C        131.54917        4.36037       -1.12214
H        130.17686        3.24731        0.11087
H        130.14452        2.79916       -1.59596
C        130.59768        5.52464       -1.40414
H        132.17817        4.19110       -2.00495
H        132.21780        4.63899       -0.29826
C        131.37827        6.78412       -1.75522
H        129.97134        5.72167       -0.52638
H        129.92682        5.27300       -2.23369
H        132.04189        7.07463       -0.93403
H        130.69683        7.61734       -1.95208
H        131.99101        6.62773       -2.64920
C        130.06548        0.03910       -0.00781
O        128.98403        0.79952       -0.19462
C        127.91762        0.01912       -0.00304
C        129.69588       -1.25325        0.31392
C        128.27813       -1.28219        0.32060
H        130.37631       -2.06834        0.51527
C        127.34369       -2.42703        0.60007
C        128.02023       -3.74719        0.96986
H        126.71558       -2.58910       -0.28625
H        126.67084       -2.13911        1.41903
C        126.99253       -4.85415        1.22405
H        128.63410       -3.60835        1.86812
H        128.69346       -4.05768        0.16172
C        127.67203       -6.16286        1.59702
H        128.26264       -6.05004        2.51181
H        128.33895       -6.49960        0.79689
H        126.92601       -6.94515        1.76893
H        126.37981       -5.01039        0.32825
H        126.31315       -4.55897        2.03250
C        140.48619        0.62553       -0.15697
C        140.05940        1.89016       -0.47446
C        138.63517        1.85878       -0.46524
H        140.69815        2.73478       -0.68747
O        139.43139       -0.19371        0.05030
C        138.29698        0.54341       -0.13349
C        137.67771        2.99222       -0.74837
C        138.35051        4.31812       -1.11154
H        137.04388        3.14808        0.13482
H        137.01461        2.69856       -1.57302
C        137.33968        5.43525       -1.38135
H        138.97563        4.17843       -2.00201
H        139.01416        4.62761       -0.29494
C        138.05243        6.73154       -1.74138
H        136.71492        5.60150       -0.49600
H        136.67128        5.15121       -2.20252
H        138.71116        7.05423       -0.92839
H        137.32818        7.53013       -1.92890
H        138.66043        6.60550       -2.64330
C        136.99097       -0.01202        0.00759
O        135.89911        0.76455       -0.18393
C        134.80049        0.01055        0.00053
C        136.57806       -1.29447        0.32636
C        135.15037       -1.29534        0.32545
H        137.23384       -2.12827        0.53231
C        134.18160       -2.41611        0.59838
C        134.80228       -3.75901        0.97339
H        133.55427       -2.55738       -0.29261
H        133.51072       -2.10719        1.41191
C        133.72419       -4.82175        1.21609
H        135.41063       -3.64435        1.87831
H        135.46946       -4.09564        0.17130
C        134.34194       -6.15835        1.59553
H        134.92634       -6.07073        2.51693
H        135.00236       -6.52275        0.80230
H        133.56117       -6.90801        1.75858
H        133.11396       -4.95168        0.31413
H        133.04851       -4.49829        2.01711
H        141.45796        0.16882       -0.04319
